* ============================================================
* 180nm Bulk CMOS Model File for LTspice
* Compatible with TSMC 180nm technology node
* Source: Public domain BSIM3v3 models
* Usage: .lib "180nm_bulk.lib" in your .asc schematic
* ============================================================

* NMOS 180nm Model
.model NMOS NMOS
+ LEVEL = 7
+ VERSION = 3.1
+ TNOM   = 27
+ TOX    = 4.1e-9
+ XJ     = 1.5e-7
+ NCH    = 2.3549e17
+ VTH0   = 0.3661
+ K1     = 0.6048
+ K2     = 1.132e-2
+ K3     = 1e-3
+ K3B    = 2.259
+ W0     = 1e-7
+ NLX    = 1.78e-7
+ DVT0W  = 0
+ DVT1W  = 0
+ DVT2W  = 0
+ DVT0   = 1.4519
+ DVT1   = 0.3838
+ DVT2   = -0.1
+ U0     = 258.8
+ UA     = -1.499e-9
+ UB     = 2.408e-18
+ UC     = 5.987e-11
+ VSAT   = 9.608e4
+ A0     = 1.4316
+ AGS    = 0.4
+ B0     = -1e-20
+ B1     = 0
+ KETA   = -2.38e-2
+ A1     = 5.916e-4
+ A2     = 0.9
+ RDSW   = 100
+ PRWG   = 0.5
+ PRWB   = -0.2
+ WR     = 1
+ WINT   = 5e-9
+ LINT   = 1.68e-8
+ XL     = 0
+ XW     = -1e-8
+ DWG    = -6e-9
+ DWB    = 5.003e-9
+ VOFF   = -0.125
+ NFACTOR= 1.64
+ CIT    = 0
+ CDSC   = 2.4e-4
+ CDSCD  = 0
+ CDSCB  = 0
+ ETA0   = 2.87e-2
+ ETAB   = -8.24e-3
+ DSUB   = 0.368
+ PCLM   = 1.299
+ PDIBLC1= 0.5
+ PDIBLC2= 6.46e-3
+ PDIBLCB= -0.2
+ DROUT  = 0.9
+ PSCBE1 = 8e10
+ PSCBE2 = 6.36e-10
+ PVAG   = 1.4
+ DELTA  = 0.01
+ RSH    = 6.5
+ MOBMOD = 1
+ PRT    = 0
+ UTE    = -1.5
+ KT1    = -0.11
+ KT1L   = 0
+ KT2    = 0.022
+ UA1    = 4.31e-9
+ UB1    = -7.61e-18
+ UC1    = -5.6e-11
+ AT     = 3.3e4
+ WL     = 0
+ WLN    = 1
+ WW     = 0
+ WWN    = 1
+ WWL    = 0
+ LL     = 0
+ LLN    = 1
+ LW     = 0
+ LWN    = 1
+ LWL    = 0
+ CAPMOD = 2
+ XPART  = 0.5
+ CGDO   = 6.2e-10
+ CGSO   = 6.2e-10
+ CGBO   = 2.56e-10
+ CJ     = 1.7e-3
+ PB     = 0.9
+ MJ     = 0.4
+ CJSW   = 3.64e-10
+ PBSW   = 0.9
+ MJSW   = 0.24
+ CJSWG  = 1.64e-10
+ PBSWG  = 0.9
+ MJSWG  = 0.24
+ CF     = 0
+ JS     = 1e-4
+ JSW    = 5e-10
+ N      = 1
+ NJ     = 1e10

* PMOS 180nm Model
.model PMOS PMOS
+ LEVEL = 7
+ VERSION = 3.1
+ TNOM   = 27
+ TOX    = 4.1e-9
+ XJ     = 1.5e-7
+ NCH    = 4.1589e17
+ VTH0   = -0.3926
+ K1     = 0.3706
+ K2     = 2.1484e-2
+ K3     = 0
+ K3B    = 6.318
+ W0     = 1e-6
+ NLX    = 4.39e-8
+ DVT0W  = 0
+ DVT1W  = 0
+ DVT2W  = 0
+ DVT0   = 0.744
+ DVT1   = 0.2457
+ DVT2   = -0.1
+ U0     = 113
+ UA     = 2.34e-9
+ UB     = 1.48e-21
+ UC     = -4.32e-11
+ VSAT   = 1.05e5
+ A0     = 1.2
+ AGS    = 0.3
+ B0     = 9.49e-7
+ B1     = 5e-6
+ KETA   = -5e-3
+ A1     = 0
+ A2     = 0.3
+ RDSW   = 250
+ PRWG   = -0.5
+ PRWB   = 0
+ WR     = 1
+ WINT   = 0
+ LINT   = 3.45e-8
+ XL     = 0
+ XW     = -1e-8
+ DWG    = -2.5e-8
+ DWB    = -5e-9
+ VOFF   = -0.1266
+ NFACTOR= 1.852
+ CIT    = 0
+ CDSC   = 2.4e-4
+ CDSCD  = 0
+ CDSCB  = 0
+ ETA0   = 8.55e-3
+ ETAB   = -1.3e-3
+ DSUB   = 0.1
+ PCLM   = 1.595
+ PDIBLC1= 0.025
+ PDIBLC2= 4.75e-3
+ PDIBLCB= -1e-3
+ DROUT  = 0.1
+ PSCBE1 = 4.62e10
+ PSCBE2 = 1e-8
+ PVAG   = 5e-3
+ DELTA  = 0.01
+ RSH    = 7.7
+ MOBMOD = 1
+ PRT    = 0
+ UTE    = -1.5
+ KT1    = -0.11
+ KT1L   = 0
+ KT2    = 0.022
+ UA1    = 4.31e-9
+ UB1    = -7.61e-18
+ UC1    = -5.6e-11
+ AT     = 3.3e4
+ WL     = 0
+ WLN    = 1
+ WW     = 0
+ WWN    = 1
+ WWL    = 0
+ LL     = 0
+ LLN    = 1
+ LW     = 0
+ LWN    = 1
+ LWL    = 0
+ CAPMOD = 2
+ XPART  = 0.5
+ CGDO   = 4.7e-10
+ CGSO   = 4.7e-10
+ CGBO   = 2.56e-10
+ CJ     = 1.4e-3
+ PB     = 0.9
+ MJ     = 0.5
+ CJSW   = 2.07e-10
+ PBSW   = 0.9
+ MJSW   = 0.29
+ CJSWG  = 1.2e-10
+ PBSWG  = 0.9
+ MJSWG  = 0.29
+ CF     = 0
+ JS     = 1e-4
+ JSW    = 5e-10
+ N      = 1
+ NJ     = 1e10
