Version 4.1
SHEET 1 1284 692
WIRE -416 -320 -448 -320
WIRE -208 -320 -416 -320
WIRE 672 -320 -208 -320
WIRE 960 -320 672 -320
WIRE -416 -272 -416 -320
WIRE 256 -208 208 -208
WIRE -416 -160 -416 -192
WIRE 208 -96 208 -128
WIRE 176 -64 128 -64
WIRE 256 -64 256 -208
WIRE 256 -64 176 -64
WIRE 304 -64 256 -64
WIRE 352 -64 304 -64
WIRE 128 -32 128 -64
WIRE 352 -32 352 -64
WIRE 176 16 176 -64
WIRE 176 16 128 16
WIRE 304 16 304 -64
WIRE 352 16 304 16
WIRE 80 48 0 48
WIRE 480 48 400 48
WIRE -208 112 -208 -320
WIRE 128 112 128 64
WIRE 480 112 480 48
WIRE 480 112 128 112
WIRE 672 112 672 -320
WIRE -304 160 -304 -400
WIRE -224 160 -304 160
WIRE 128 160 128 112
WIRE 128 160 -128 160
WIRE 352 160 352 64
WIRE 592 160 352 160
WIRE 784 160 784 -384
WIRE 784 160 688 160
WIRE 0 208 0 48
WIRE 352 208 352 160
WIRE 352 208 0 208
WIRE 128 224 128 160
WIRE 352 224 352 208
WIRE -304 240 -304 160
WIRE 784 256 784 160
WIRE -176 272 -176 160
WIRE 160 272 128 272
WIRE 352 272 320 272
WIRE 640 272 640 160
WIRE 0 304 0 208
WIRE 80 304 0 304
WIRE 480 304 480 112
WIRE 480 304 400 304
WIRE 128 336 128 320
WIRE 160 336 160 272
WIRE 160 336 128 336
WIRE 320 336 320 272
WIRE 352 336 352 320
WIRE 352 336 320 336
WIRE -304 368 -304 320
WIRE 784 368 784 336
WIRE 128 416 128 336
WIRE 352 416 352 336
FLAG 128 416 0
FLAG 352 416 0
FLAG 208 -96 0
FLAG -176 272 0
FLAG 640 272 0
FLAG -448 -320 WL
IOPIN -448 -320 In
FLAG -304 -400 BL
IOPIN -304 -400 In
FLAG 784 -384 BLB
IOPIN 784 -384 In
FLAG 128 160 Q
FLAG 352 160 QB
FLAG -304 368 0
FLAG 784 368 0
FLAG -416 -160 0
SYMBOL nmos4 -128 112 R90
SYMATTR InstName M1
SYMATTR Value2 l=180n w=1u
SYMBOL nmos4 592 112 M90
SYMATTR InstName M2
SYMATTR Value2 l=180n w=1u
SYMBOL pmos4 80 -32 R0
SYMATTR InstName M3
SYMATTR Value2 l=180n w=2u
SYMBOL pmos4 400 -32 M0
SYMATTR InstName M4
SYMATTR Value2 l=180n w=2u
SYMBOL nmos4 80 224 R0
SYMATTR InstName M5
SYMATTR Value2 l=180n w=1u
SYMBOL nmos4 400 224 M0
SYMATTR InstName M6
SYMATTR Value2 l=180n w=1u
SYMBOL voltage 208 -224 R0
WINDOW 123 0 0 Left 0
WINDOW 39 0 0 Left 0
SYMATTR InstName V1
SYMATTR Value 1
SYMBOL voltage -416 -288 R0
WINDOW 123 0 0 Left 0
WINDOW 39 0 0 Left 0
SYMATTR InstName V2
SYMATTR Value PULSE(0 1 0 1n 1n 10n 20n)
SYMBOL voltage -304 224 R0
WINDOW 3 -475 96 Left 2
WINDOW 123 0 0 Left 0
WINDOW 39 0 0 Left 0
SYMATTR InstName V3
SYMATTR Value PWL(0 1 10n 1 20n 0 30n 0 40n 1 50n 1)
SYMBOL voltage 784 240 R0
WINDOW 123 0 0 Left 0
WINDOW 39 0 0 Left 0
SYMATTR InstName V4
SYMATTR Value PWL(0 0 10n 0 20n 1 30n 1 40n 0 50n 0)
TEXT -488 -72 Left 2 !.tran 50n
TEXT -760 152 Left 2 !.meas tran Iavg AVG I(V1)
